Learning-Based/Data/case_123.py
from numpy import array
def case_123():
	ppc = {"version": '2'}
	ppc["baseMVA"] = 0.001
	ppc["bus"] = array([
		[1,      1,   40,       20,       0,      0,      0,   1.0,      0,        4.16,     0,   1.1,      0.9       ],
		[2,      1,   20,       10,       0,      0,      0,   1.0,      0,        4.16,     0,   1.1,      0.9       ],
		[3,      1,   0,        0,        0,      0,      0,   1.0,      0,        4.16,     0,   1.1,      0.9       ],
		[4,      1,   40,       20,       0,      0,      0,   1.0,      0,        4.16,     0,   1.1,      0.9       ],
		[5,      1,   20,       10,       0,      0,      0,   1.0,      0,        4.16,     0,   1.1,      0.9       ],
		[6,      1,   40,       20,       0,      0,      0,   1.0,      0,        4.16,     0,   1.1,      0.9       ],
		[7,      1,   20,       10,       0,      0,      0,   1.0,      0,        4.16,     0,   1.1,      0.9       ],
		[8,      1,   0,        0,        0,      0,      0,   1.0,      0,        4.16,     0,   1.1,      0.9       ],
		[9,      1,   40,       20,       0,      0,      0,   1.0,      0,        4.16,     0,   1.1,      0.9       ],
		[10,     1,   20,       10,       0,      0,      0,   1.0,      0,        4.16,     0,   1.1,      0.9       ],
		[11,     1,   40,       20,       0,      0,      0,   1.0,      0,        4.16,     0,   1.1,      0.9       ],
		[12,     1,   20,       10,       0,      0,      0,   1.0,      0,        4.16,     0,   1.1,      0.9       ],
		[13,     1,   0,        0,        0,      0,      0,   1.0,      0,        4.16,     0,   1.1,      0.9       ],
		[14,     1,   0,        0,        0,      0,      0,   1.0,      0,        4.16,     0,   1.1,      0.9       ],
		[15,     1,   0,        0,        0,      0,      0,   1.0,      0,        4.16,     0,   1.1,      0.9       ],
		[16,     1,   40,       20,       0,      0,      0,   1.0,      0,        4.16,     0,   1.1,      0.9       ],
		[17,     1,   20,       10,       0,      0,      0,   1.0,      0,        4.16,     0,   1.1,      0.9       ],
		[18,     1,   0,        0,        0,      0,      0,   1.0,      0,        4.16,     0,   1.1,      0.9       ],
		[19,     1,   40,       20,       0,      0,      0,   1.0,      0,        4.16,     0,   1.1,      0.9       ],
		[20,     1,   40,       20,       0,      0,      0,   1.0,      0,        4.16,     0,   1.1,      0.9       ],
		[21,     1,   0,        0,        0,      0,      0,   1.0,      0,        4.16,     0,   1.1,      0.9       ],
		[22,     1,   40,       20,       0,      0,      0,   1.0,      0,        4.16,     0,   1.1,      0.9       ],
		[23,     1,   0,        0,        0,      0,      0,   1.0,      0,        4.16,     0,   1.1,      0.9       ],
		[24,     1,   40,       20,       0,      0,      0,   1.0,      0,        4.16,     0,   1.1,      0.9       ],
		[25,     1,   0,        0,        0,      0,      0,   1.0,      0,        4.16,     0,   1.1,      0.9       ],
		[26,     1,   0,        0,        0,      0,      0,   1.0,      0,        4.16,     0,   1.1,      0.9       ],
		[27,     1,   0,        0,        0,      0,      0,   1.0,      0,        4.16,     0,   1.1,      0.9       ],
		[28,     1,   40,       20,       0,      0,      0,   1.0,      0,        4.16,     0,   1.1,      0.9       ],
		[29,     1,   40,       20,       0,      0,      0,   1.0,      0,        4.16,     0,   1.1,      0.9       ],
		[30,     1,   40,       20,       0,      0,      0,   1.0,      0,        4.16,     0,   1.1,      0.9       ],
		[31,     1,   20,       10,       0,      0,      0,   1.0,      0,        4.16,     0,   1.1,      0.9       ],
		[32,     1,   20,       10,       0,      0,      0,   1.0,      0,        4.16,     0,   1.1,      0.9       ],
		[33,     1,   40,       20,       0,      0,      0,   1.0,      0,        4.16,     0,   1.1,      0.9       ],
		[34,     1,   40,       20,       0,      0,      0,   1.0,      0,        4.16,     0,   1.1,      0.9       ],
		[35,     1,   40,       20,       0,      0,      0,   1.0,      0,        4.16,     0,   1.1,      0.9       ],
		[36,     1,   0,        0,        0,      0,      0,   1.0,      0,        4.16,     0,   1.1,      0.9       ],
		[37,     1,   40,       20,       0,      0,      0,   1.0,      0,        4.16,     0,   1.1,      0.9       ],
		[38,     1,   20,       10,       0,      0,      0,   1.0,      0,        4.16,     0,   1.1,      0.9       ],
		[39,     1,   20,       10,       0,      0,      0,   1.0,      0,        4.16,     0,   1.1,      0.9       ],
		[40,     1,   0,        0,        0,      0,      0,   1.0,      0,        4.16,     0,   1.1,      0.9       ],
		[41,     1,   20,       10,       0,      0,      0,   1.0,      0,        4.16,     0,   1.1,      0.9       ],
		[42,     1,   20,       10,       0,      0,      0,   1.0,      0,        4.16,     0,   1.1,      0.9       ],
		[43,     1,   40,       20,       0,      0,      0,   1.0,      0,        4.16,     0,   1.1,      0.9       ],
		[44,     1,   0,        0,        0,      0,      0,   1.0,      0,        4.16,     0,   1.1,      0.9       ],
		[45,     1,   20,       10,       0,      0,      0,   1.0,      0,        4.16,     0,   1.1,      0.9       ],
		[46,     1,   20,       10,       0,      0,      0,   1.0,      0,        4.16,     0,   1.1,      0.9       ],
		[47,     1,   35,       25,       0,      0,      0,   1.0,      0,        4.16,     0,   1.1,      0.9       ],
		[48,     1,   70,       50,       0,      0,      0,   1.0,      0,        4.16,     0,   1.1,      0.9       ],
		[49,     1,   70,       50,       0,      0,      0,   1.0,      0,        4.16,     0,   1.1,      0.9       ],
		[50,     1,   40,       20,       0,      0,      0,   1.0,      0,        4.16,     0,   1.1,      0.9       ],
		[51,     1,   20,       10,       0,      0,      0,   1.0,      0,        4.16,     0,   1.1,      0.9       ],
		[52,     1,   40,       20,       0,      0,      0,   1.0,      0,        4.16,     0,   1.1,      0.9       ],
		[53,     1,   40,       20,       0,      0,      0,   1.0,      0,        4.16,     0,   1.1,      0.9       ],
		[54,     1,   0,        0,        0,      0,      0,   1.0,      0,        4.16,     0,   1.1,      0.9       ],
		[55,     1,   20,       10,       0,      0,      0,   1.0,      0,        4.16,     0,   1.1,      0.9       ],
		[56,     1,   20,       10,       0,      0,      0,   1.0,      0,        4.16,     0,   1.1,      0.9       ],
		[57,     1,   0,        0,        0,      0,      0,   1.0,      0,        4.16,     0,   1.1,      0.9       ],
		[58,     1,   20,       10,       0,      0,      0,   1.0,      0,        4.16,     0,   1.1,      0.9       ],
		[59,     1,   20,       10,       0,      0,      0,   1.0,      0,        4.16,     0,   1.1,      0.9       ],
		[60,     1,   20,       10,       0,      0,      0,   1.0,      0,        4.16,     0,   1.1,      0.9       ],
		[61,     1,   0,        0,        0,      0,      0,   1.0,      0,        4.16,     0,   1.1,      0.9       ],
		[62,     1,   40,       20,       0,      0,      0,   1.0,      0,        4.16,     0,   1.1,      0.9       ],
		[63,     1,   40,       20,       0,      0,      0,   1.0,      0,        4.16,     0,   1.1,      0.9       ],
		[64,     1,   75,       35,       0,      0,      0,   1.0,      0,        4.16,     0,   1.1,      0.9       ],
		[65,     1,   70,       50,       0,      0,      0,   1.0,      0,        4.16,     0,   1.1,      0.9       ],
		[66,     1,   75,       35,       0,      0,      0,   1.0,      0,        4.16,     0,   1.1,      0.9       ],
		[67,     1,   0,        0,        0,      0,      0,   1.0,      0,        4.16,     0,   1.1,      0.9       ],
		[68,     1,   20,       10,       0,      0,      0,   1.0,      0,        4.16,     0,   1.1,      0.9       ],
		[69,     1,   40,       20,       0,      0,      0,   1.0,      0,        4.16,     0,   1.1,      0.9       ],
		[70,     1,   20,       10,       0,      0,      0,   1.0,      0,        4.16,     0,   1.1,      0.9       ],
		[71,     1,   40,       20,       0,      0,      0,   1.0,      0,        4.16,     0,   1.1,      0.9       ],
		[72,     1,   0,        0,        0,      0,      0,   1.0,      0,        4.16,     0,   1.1,      0.9       ],
		[73,     1,   40,       20,       0,      0,      0,   1.0,      0,        4.16,     0,   1.1,      0.9       ],
		[74,     1,   40,       20,       0,      0,      0,   1.0,      0,        4.16,     0,   1.1,      0.9       ],
		[75,     1,   40,       20,       0,      0,      0,   1.0,      0,        4.16,     0,   1.1,      0.9       ],
		[76,     1,   105,      80,       0,      0,      0,   1.0,      0,        4.16,     0,   1.1,      0.9       ],
		[77,     1,   40,       20,       0,      0,      0,   1.0,      0,        4.16,     0,   1.1,      0.9       ],
		[78,     1,   0,        0,        0,      0,      0,   1.0,      0,        4.16,     0,   1.1,      0.9       ],
		[79,     1,   40,       20,       0,      0,      0,   1.0,      0,        4.16,     0,   1.1,      0.9       ],
		[80,     1,   40,       20,       0,      0,      0,   1.0,      0,        4.16,     0,   1.1,      0.9       ],
		[81,     1,   0,        0,        0,      0,      0,   1.0,      0,        4.16,     0,   1.1,      0.9       ],
		[82,     1,   40,       20,       0,      0,      0,   1.0,      0,        4.16,     0,   1.1,      0.9       ],
		[83,     1,   20,       10,       0,      0,      0,   1.0,      0,        4.16,     0,   1.1,      0.9       ],
		[84,     1,   20,       10,       0,      0,      0,   1.0,      0,        4.16,     0,   1.1,      0.9       ],
		[85,     1,   40,       20,       0,      0,      0,   1.0,      0,        4.16,     0,   1.1,      0.9       ],
		[86,     1,   20,       10,       0,      0,      0,   1.0,      0,        4.16,     0,   1.1,      0.9       ],
		[87,     1,   40,       20,       0,      0,      0,   1.0,      0,        4.16,     0,   1.1,      0.9       ],
		[88,     1,   40,       20,       0,      0,      0,   1.0,      0,        4.16,     0,   1.1,      0.9       ],
		[89,     1,   0,        0,        0,      0,      0,   1.0,      0,        4.16,     0,   1.1,      0.9       ],
		[90,     1,   40,       20,       0,      0,      0,   1.0,      0,        4.16,     0,   1.1,      0.9       ],
		[91,     1,   0,        0,        0,      0,      0,   1.0,      0,        4.16,     0,   1.1,      0.9       ],
		[92,     1,   40,       20,       0,      0,      0,   1.0,      0,        4.16,     0,   1.1,      0.9       ],
		[93,     1,   0,        0,        0,      0,      0,   1.0,      0,        4.16,     0,   1.1,      0.9       ],
		[94,     1,   40,       20,       0,      0,      0,   1.0,      0,        4.16,     0,   1.1,      0.9       ],
		[95,     1,   20,       10,       0,      0,      0,   1.0,      0,        4.16,     0,   1.1,      0.9       ],
		[96,     1,   20,       10,       0,      0,      0,   1.0,      0,        4.16,     0,   1.1,      0.9       ],
		[97,     1,   0,        0,        0,      0,      0,   1.0,      0,        4.16,     0,   1.1,      0.9       ],
		[98,     1,   40,       20,       0,      0,      0,   1.0,      0,        4.16,     0,   1.1,      0.9       ],
		[99,     1,   40,       20,       0,      0,      0,   1.0,      0,        4.16,     0,   1.1,      0.9       ],
		[100,    1,   40,       20,       0,      0,      0,   1.0,      0,        4.16,     0,   1.1,      0.9       ],
		[101,    1,   0,        0,        0,      0,      0,   1.0,      0,        4.16,     0,   1.1,      0.9       ],
		[102,    1,   20,       10,       0,      0,      0,   1.0,      0,        4.16,     0,   1.1,      0.9       ],
		[103,    1,   40,       20,       0,      0,      0,   1.0,      0,        4.16,     0,   1.1,      0.9       ],
		[104,    1,   40,       20,       0,      0,      0,   1.0,      0,        4.16,     0,   1.1,      0.9       ],
		[105,    1,   0,        0,        0,      0,      0,   1.0,      0,        4.16,     0,   1.1,      0.9       ],
		[106,    1,   40,       20,       0,      0,      0,   1.0,      0,        4.16,     0,   1.1,      0.9       ],
		[107,    1,   40,       20,       0,      0,      0,   1.0,      0,        4.16,     0,   1.1,      0.9       ],
		[108,    1,   0,        0,        0,      0,      0,   1.0,      0,        4.16,     0,   1.1,      0.9       ],
		[109,    1,   40,       20,       0,      0,      0,   1.0,      0,        4.16,     0,   1.1,      0.9       ],
		[110,    1,   0,        0,        0,      0,      0,   1.0,      0,        4.16,     0,   1.1,      0.9       ],
		[111,    1,   20,       10,       0,      0,      0,   1.0,      0,        4.16,     0,   1.1,      0.9       ],
		[112,    1,   20,       10,       0,      0,      0,   1.0,      0,        4.16,     0,   1.1,      0.9       ],
		[113,    1,   40,       20,       0,      0,      0,   1.0,      0,        4.16,     0,   1.1,      0.9       ],
		[114,    1,   20,       10,       0,      0,      0,   1.0,      0,        4.16,     0,   1.1,      0.9       ],
		[135,    1,   0,        0,        0,      0,      0,   1.0,      0,        4.16,     0,   1.1,      0.9       ],
		[149,    1,   0,        0,        0,      0,      0,   1.0,      0,        4.16,     0,   1.1,      0.9       ],
		[150,    3,   0,        0,        0,      0,      0,   1.0,      0,        4.16,     0,   1.1,      0.9       ],
		[151,    1,   0,        0,        0,      0,      0,   1.0,      0,        4.16,     0,   1.1,      0.9       ],
		[152,    1,   0,        0,        0,      0,      0,   1.0,      0,        4.16,     0,   1.1,      0.9       ],
		[160,    1,   0,        0,        0,      0,      0,   1.0,      0,        4.16,     0,   1.1,      0.9       ],
		[197,    1,   0,        0,        0,      0,      0,   1.0,      0,        4.16,     0,   1.1,      0.9       ],
		[250,    1,   0,        0,        0,      0,      0,   1.0,      0,        4.16,     0,   1.1,      0.9       ],
		[251,    1,   0,        0,        0,      0,      0,   1.0,      0,        4.16,     0,   1.1,      0.9       ],
		[300,    1,   0,        0,        0,      0,      0,   1.0,      0,        4.16,     0,   1.1,      0.9       ],
		[350,    1,   0,        0,        0,      0,      0,   1.0,      0,        4.16,     0,   1.1,      0.9       ],
		[450,    1,   0,        0,        0,      0,      0,   1.0,      0,        4.16,     0,   1.1,      0.9       ],
		[451,    1,   0,        0,        0,      0,      0,   1.0,      0,        4.16,     0,   1.1,      0.9       ],
		[610,    1,   0,        0,        0,      0,      0,   1.0,      0,        4.16,     0,   1.1,      0.9       ]
	])
	ppc["branch"] = array([
		[1,      2,      71.87565,      70.899528,     241.059462,    600,    0, 0, 0, 0, 1, -30,    30      ],
		[1,      3,      102.6795,      101.28504,     344.37066,     450,    0, 0, 0, 0, 1, -30,    30      ],
		[1,      7,      98.57232,      41.842944,     519.05916,     9999,   0, 0, 0, 0, 1, -30,    30      ],
		[3,      4,      82.1436,       81.028032,     275.496528,    450,    0, 0, 0, 0, 1, -30,    30      ],
		[3,      5,      133.48335,     131.670552,    447.681858,    450,    0, 0, 0, 0, 1, -30,    30      ],
		[5,      6,      102.6795,      101.28504,     344.37066,     450,    0, 0, 0, 0, 1, -30,    30      ],
		[7,      8,      65.71488,      27.895296,     346.03944,     9999,   0, 0, 0, 0, 1, -30,    30      ],
		[8,      12,     92.41155,      91.156536,     309.933594,    600,    0, 0, 0, 0, 1, -30,    30      ],
		[8,      9,      92.41155,      91.156536,     309.933594,    500,    0, 0, 0, 0, 1, -30,    30      ],
		[8,      13,     98.57232,      41.842944,     519.05916,     9999,   0, 0, 0, 0, 1, -30,    30      ],
		[9,      14,     174.55515,     172.184568,    585.430122,    500,    0, 0, 0, 0, 1, -30,    30      ],
		[13,     34,     61.6077,       60.771024,     206.622396,    450,    0, 0, 0, 0, 1, -30,    30      ],
		[13,     18,     263.580372,    117.331236,    1503.957114,   500,    0, 0, 0, 0, 1, -30,    30      ],
		[14,     11,     102.6795,      101.28504,     344.37066,     500,    0, 0, 0, 0, 1, -30,    30      ],
		[14,     10,     102.6795,      101.28504,     344.37066,     500,    0, 0, 0, 0, 1, -30,    30      ],
		[15,     16,     154.01925,     151.92756,     516.55599,     450,    0, 0, 0, 0, 1, -30,    30      ],
		[15,     17,     143.7513,      141.799056,    482.118924,    450,    0, 0, 0, 0, 1, -30,    30      ],
		[18,     19,     102.6795,      101.28504,     344.37066,     500,    0, 0, 0, 0, 1, -30,    30      ],
		[18,     21,     95.847408,     42.665904,     546.893496,    500,    0, 0, 0, 0, 1, -30,    30      ],
		[19,     20,     133.48335,     131.670552,    447.681858,    500,    0, 0, 0, 0, 1, -30,    30      ],
		[21,     22,     215.62695,     212.698584,    723.178386,    600,    0, 0, 0, 0, 1, -30,    30      ],
		[21,     23,     79.87284,      35.55492,      455.74458,     500,    0, 0, 0, 0, 1, -30,    30      ],
		[23,     24,     225.8949,      222.827088,    757.615452,    450,    0, 0, 0, 0, 1, -30,    30      ],
		[23,     25,     87.860124,     39.110412,     501.319038,    500,    0, 0, 0, 0, 1, -30,    30      ],
		[25,     26,     115.00104,     48.816768,     545.710872,    600,    0, 0, 0, 0, 1, -30,    30      ],
		[25,     28,     63.898272,     28.443936,     364.595664,    500,    0, 0, 0, 0, 1, -30,    30      ],
		[26,     27,     90.35796,      38.356032,     428.772828,    600,    0, 0, 0, 0, 1, -30,    30      ],
		[26,     31,     92.41155,      91.156536,     309.933594,    450,    0, 0, 0, 0, 1, -30,    30      ],
		[27,     33,     205.359,       202.57008,     688.74132,     500,    0, 0, 0, 0, 1, -30,    30      ],
		[28,     29,     95.847408,     42.665904,     546.893496,    500,    0, 0, 0, 0, 1, -30,    30      ],
		[29,     30,     111.821976,    49.776888,     638.042412,    500,    0, 0, 0, 0, 1, -30,    30      ],
		[30,     250,    63.898272,     28.443936,     364.595664,    500,    0, 0, 0, 0, 1, -30,    30      ],
		[31,     32,     123.2154,      121.542048,    413.244792,    450,    0, 0, 0, 0, 1, -30,    30      ],
		[34,     15,     41.0718,       40.514016,     137.748264,    450,    0, 0, 0, 0, 1, -30,    30      ],
		[35,     36,     213.57336,     90.659712,     1013.463048,   400,    0, 0, 0, 0, 1, -30,    30      ],
		[35,     40,     82.1436,       34.86912,      432.5493,      550,    0, 0, 0, 0, 1, -30,    30      ],
		[36,     37,     123.2154,      121.542048,    413.244792,    500,    0, 0, 0, 0, 1, -30,    30      ],
		[36,     38,     102.6795,      101.28504,     344.37066,     600,    0, 0, 0, 0, 1, -30,    30      ],
		[38,     39,     133.48335,     131.670552,    447.681858,    600,    0, 0, 0, 0, 1, -30,    30      ],
		[40,     41,     133.48335,     131.670552,    447.681858,    450,    0, 0, 0, 0, 1, -30,    30      ],
		[40,     42,     82.1436,       34.86912,      432.5493,      550,    0, 0, 0, 0, 1, -30,    30      ],
		[42,     43,     205.359,       202.57008,     688.74132,     600,    0, 0, 0, 0, 1, -30,    30      ],
		[42,     44,     65.71488,      27.895296,     346.03944,     550,    0, 0, 0, 0, 1, -30,    30      ],
		[44,     45,     82.1436,       81.028032,     275.496528,    500,    0, 0, 0, 0, 1, -30,    30      ],
		[44,     47,     82.1436,       34.86912,      432.5493,      550,    0, 0, 0, 0, 1, -30,    30      ],
		[45,     46,     123.2154,      121.542048,    413.244792,    500,    0, 0, 0, 0, 1, -30,    30      ],
		[47,     48,     48.696372,     21.09978,      246.755412,    600,    0, 0, 0, 0, 1, -30,    30      ],
		[47,     49,     81.16062,      35.1663,       411.25902,     600,    0, 0, 0, 0, 1, -30,    30      ],
		[49,     50,     81.16062,      35.1663,       411.25902,     600,    0, 0, 0, 0, 1, -30,    30      ],
		[50,     51,     81.16062,      35.1663,       411.25902,     600,    0, 0, 0, 0, 1, -30,    30      ],
		[51,     151,    162.32124,     70.3326,       822.51804,     600,    0, 0, 0, 0, 1, -30,    30      ],
		[52,     53,     65.71488,      27.895296,     346.03944,     550,    0, 0, 0, 0, 1, -30,    30      ],
		[53,     54,     41.0718,       17.43456,      216.27465,     550,    0, 0, 0, 0, 1, -30,    30      ],
		[54,     55,     90.35796,      38.356032,     475.80423,     550,    0, 0, 0, 0, 1, -30,    30      ],
		[54,     57,     113.624868,    49.23282,      575.762628,    400,    0, 0, 0, 0, 1, -30,    30      ],
		[55,     56,     90.35796,      38.356032,     475.80423,     550,    0, 0, 0, 0, 1, -30,    30      ],
		[57,     58,     102.6795,      101.28504,     344.37066,     600,    0, 0, 0, 0, 1, -30,    30      ],
		[57,     60,     243.48186,     105.4989,      1233.77706,    400,    0, 0, 0, 0, 1, -30,    30      ],
		[58,     59,     102.6795,      101.28504,     344.37066,     600,    0, 0, 0, 0, 1, -30,    30      ],
		[60,     61,     175.720248,    78.220824,     1002.638076,   500,    0, 0, 0, 0, 1, -30,    30      ],
		[60,     62,     57.31002,      115.89258,     5122.48404,    400,    0, 0, 0, 0, 1, -30,    30      ],
		[62,     63,     40.117014,     81.124806,     3585.738828,   400,    0, 0, 0, 0, 1, -30,    30      ],
		[63,     64,     80.234028,     162.249612,    7171.477656,   400,    0, 0, 0, 0, 1, -30,    30      ],
		[64,     65,     97.427034,     197.017386,    8708.222868,   400,    0, 0, 0, 0, 1, -30,    30      ],
		[65,     66,     74.503026,     150.660354,    6659.229252,   400,    0, 0, 0, 0, 1, -30,    30      ],
		[67,     68,     82.1436,       81.028032,     275.496528,    500,    0, 0, 0, 0, 1, -30,    30      ],
		[67,     72,     89.276682,     38.68293,      452.384922,    400,    0, 0, 0, 0, 1, -30,    30      ],
		[67,     97,     81.16062,      35.1663,       411.25902,     400,    0, 0, 0, 0, 1, -30,    30      ],
		[68,     69,     112.94745,     111.413544,    378.807726,    500,    0, 0, 0, 0, 1, -30,    30      ],
		[69,     70,     133.48335,     131.670552,    447.681858,    500,    0, 0, 0, 0, 1, -30,    30      ],
		[70,     71,     112.94745,     111.413544,    378.807726,    500,    0, 0, 0, 0, 1, -30,    30      ],
		[72,     73,     112.94745,     111.413544,    378.807726,    450,    0, 0, 0, 0, 1, -30,    30      ],
		[72,     76,     64.928496,     28.13304,      329.007216,    400,    0, 0, 0, 0, 1, -30,    30      ],
		[73,     74,     143.7513,      141.799056,    482.118924,    450,    0, 0, 0, 0, 1, -30,    30      ],
		[74,     75,     164.2872,      162.056064,    550.993056,    450,    0, 0, 0, 0, 1, -30,    30      ],
		[76,     77,     131.42976,     55.790592,     692.07888,     550,    0, 0, 0, 0, 1, -30,    30      ],
		[76,     86,     227.249736,    98.46564,      1151.525256,   400,    0, 0, 0, 0, 1, -30,    30      ],
		[77,     78,     32.85744,      13.947648,     173.01972,     550,    0, 0, 0, 0, 1, -30,    30      ],
		[78,     79,     73.92924,      31.382208,     389.29437,     550,    0, 0, 0, 0, 1, -30,    30      ],
		[78,     80,     156.07284,     66.251328,     821.84367,     550,    0, 0, 0, 0, 1, -30,    30      ],
		[80,     81,     156.07284,     66.251328,     821.84367,     550,    0, 0, 0, 0, 1, -30,    30      ],
		[81,     82,     82.1436,       34.86912,      432.5493,      550,    0, 0, 0, 0, 1, -30,    30      ],
		[81,     84,     277.23465,     273.469608,    929.800782,    450,    0, 0, 0, 0, 1, -30,    30      ],
		[82,     83,     82.1436,       34.86912,      432.5493,      550,    0, 0, 0, 0, 1, -30,    30      ],
		[84,     85,     195.09105,     192.441576,    654.304254,    450,    0, 0, 0, 0, 1, -30,    30      ],
		[86,     87,     147.85848,     62.764416,     778.58874,     550,    0, 0, 0, 0, 1, -30,    30      ],
		[87,     88,     71.87565,      70.899528,     241.059462,    500,    0, 0, 0, 0, 1, -30,    30      ],
		[87,     89,     90.35796,      38.356032,     475.80423,     550,    0, 0, 0, 0, 1, -30,    30      ],
		[89,     90,     92.41155,      91.156536,     309.933594,    600,    0, 0, 0, 0, 1, -30,    30      ],
		[89,     91,     73.92924,      31.382208,     389.29437,     550,    0, 0, 0, 0, 1, -30,    30      ],
		[91,     92,     123.2154,      121.542048,    413.244792,    450,    0, 0, 0, 0, 1, -30,    30      ],
		[91,     93,     73.92924,      31.382208,     389.29437,     550,    0, 0, 0, 0, 1, -30,    30      ],
		[93,     94,     112.94745,     111.413544,    378.807726,    500,    0, 0, 0, 0, 1, -30,    30      ],
		[93,     95,     98.57232,      41.842944,     519.05916,     550,    0, 0, 0, 0, 1, -30,    30      ],
		[95,     96,     82.1436,       81.028032,     275.496528,    600,    0, 0, 0, 0, 1, -30,    30      ],
		[97,     98,     89.276682,     38.68293,      452.384922,    400,    0, 0, 0, 0, 1, -30,    30      ],
		[98,     99,     178.553364,    77.36586,      904.769844,    400,    0, 0, 0, 0, 1, -30,    30      ],
		[99,     100,    97.392744,     42.19956,      493.510824,    400,    0, 0, 0, 0, 1, -30,    30      ],
		[100,    450,    259.713984,    112.53216,     1316.028864,   400,    0, 0, 0, 0, 1, -30,    30      ],
		[101,    102,    92.41155,      91.156536,     309.933594,    450,    0, 0, 0, 0, 1, -30,    30      ],
		[101,    105,    89.276682,     38.68293,      452.384922,    400,    0, 0, 0, 0, 1, -30,    30      ],
		[102,    103,    133.48335,     131.670552,    447.681858,    450,    0, 0, 0, 0, 1, -30,    30      ],
		[103,    104,    287.5026,      283.598112,    964.237848,    450,    0, 0, 0, 0, 1, -30,    30      ],
		[105,    106,    92.41155,      91.156536,     309.933594,    600,    0, 0, 0, 0, 1, -30,    30      ],
		[105,    108,    105.508806,    45.71619,      534.636726,    400,    0, 0, 0, 0, 1, -30,    30      ],
		[106,    107,    236.16285,     232.955592,    792.052518,    600,    0, 0, 0, 0, 1, -30,    30      ],
		[108,    109,    184.8231,      182.313072,    619.867188,    500,    0, 0, 0, 0, 1, -30,    30      ],
		[108,    300,    324.64248,     140.6652,      1645.03608,    400,    0, 0, 0, 0, 1, -30,    30      ],
		[109,    110,    123.2154,      121.542048,    413.244792,    500,    0, 0, 0, 0, 1, -30,    30      ],
		[110,    111,    236.16285,     232.955592,    792.052518,    500,    0, 0, 0, 0, 1, -30,    30      ],
		[110,    112,    51.33975,      50.64252,      172.18533,     500,    0, 0, 0, 0, 1, -30,    30      ],
		[112,    113,    215.62695,     212.698584,    723.178386,    500,    0, 0, 0, 0, 1, -30,    30      ],
		[113,    114,    133.48335,     131.670552,    447.681858,    500,    0, 0, 0, 0, 1, -30,    30      ],
		[135,    35,     121.74093,     52.74945,      616.88853,     600,    0, 0, 0, 0, 1, -30,    30      ],
		[149,    1,      131.42976,     55.790592,     692.07888,     9999,   0, 0, 0, 0, 1, -30,    30      ],
		[152,    52,     131.42976,     55.790592,     692.07888,     550,    0, 0, 0, 0, 1, -30,    30      ],
		[160,    67,     115.00104,     48.816768,     605.56902,     550,    0, 0, 0, 0, 1, -30,    30      ],
		[197,    101,    81.16062,      35.1663,       411.25902,     400,    0, 0, 0, 0, 1, -30,    30      ],
		[13,     152,    0.001,         0.001,         0,             9999,   0, 0, 0, 0, 1, -30,    30      ],
		[18,     135,    0.001,         0.001,         0,             9999,   0, 0, 0, 0, 1, -30,    30      ],
		[60,     160,    0.001,         0.001,         0,             9999,   0, 0, 0, 0, 1, -30,    30      ],
		[61,     610,    0.001,         0.001,         0,             9999,   0, 0, 0, 0, 1, -30,    30      ],
		[97,     197,    0.001,         0.001,         0,             9999,   0, 0, 0, 0, 1, -30,    30      ],
		[150,    149,    0.001,         0.001,         0,             9999,   0, 0, 0, 0, 1, -30,    30      ],
		[250,    251,    0.001,         0.001,         0,             9999,   0, 0, 0, 0, 1, -30,    30      ],
		[450,    451,    0.001,         0.001,         0,             9999,   0, 0, 0, 0, 1, -30,    30      ],
		[54,     94,     0.001,         0.001,         0,             9999,   0, 0, 0, 0, 1, -30,    30      ],
		[151,    300,    0.001,         0.001,         0,             9999,   0, 0, 0, 0, 1, -30,    30      ],
		[300,    350,    0.001,         0.001,         0,             9999,   0, 0, 0, 0, 1, -30,    30      ],
        [7,      32,     98.57232,      41.842944,     519.05916,     550,    0, 0, 0, 0, 1, -30,    30      ],
        [46,     250,    98.57232,      41.842944,     519.05916,     550,    0, 0, 0, 0, 1, -30,    30      ],
        [71,     114,    98.57232,      41.842944,     519.05916,     550,    0, 0, 0, 0, 1, -30,    30      ]
	])
    ppc["gen"] = array([ 
	    [150,	0,	0,	5000,	-5000,	1.001,	100,	1,	5000,	0,	0,	0,	0,	0,	0,	0,	0,	0,	0,	0,	0]
    ])
    # data of PV inverters
    # bus name, real power injection (kW), power factor, min and max real power injection (kW)
    ppc["bus_pv"] = array([
	    [25,	400, 0.98, 0, 1000],
        [50,	400, 0.98, 0, 1000],
        [67,	400, 0.98, 0, 1000],
        [93,	400, 0.98, 0, 1000],
        [101,   400, 0.98, 0, 1000]
    ])
	return ppc